[General]

*.car[*].cmdenv-log-level = info
*.veinsManager.moduleName.cmdenv-log-level = info
**.cmdenv-log-level = fatal
cmdenv-express-mode = true
cmdenv-autoflush = true

# network = vanet_dash_v_0_1.simulations.cars.Highway_AE ## Highway Sim.
network = vanet_dash_v_0_1.simulations.cars.Highway_USP ## USP Sim.

##########################################################
#            Simulation parameters                       #
##########################################################
debug-on-errors = false
print-undisposed = false

repeat = 10

sim-time-limit = 70s

**.sctp.**.scalar-recording = false
**.sctp.**.vector-recording = false

**.coreDebug = false
# **.routingRecorder.enabled = false

*.playgroundSizeX = 20000m
*.playgroundSizeY = 20000m
*.playgroundSizeZ = 50m

##########################################################
#            VeinsManager parameters                     #
##########################################################
*.veinsManager.moduleType = "lte.corenetwork.nodes.cars.Car"
*.veinsManager.moduleName = "car"
*.veinsManager.moduleDisplayString = ""
#*.veinsManager.launchConfig = xmldoc("heterogeneous.launchd.xml")  ## Highway Sim.
*.veinsManager.launchConfig = xmldoc("usp.launchd.xml") ## USP Sim.
*.veinsManager.updateInterval = 0.1s

##########################################################
#                      Mobility                          #
##########################################################
*.car[*].mobilityType = "VeinsInetMobility"

**.deployer.positionUpdateInterval = 0.001s

##########################################################
#      IP configuration for dynamic-created UEs          #
##########################################################
# enrolled multicast groups must be set in the HostAutoConfigurator (instead of demo.xml), seperated by a single space character
*.car[*].configurator.mcastGroups = "224.0.0.10"

##########################################################
#			         channel parameters                  #
##########################################################
**.channelControl.pMax = 10W
**.channelControl.alpha = 1.0
**.channelControl.carrierFrequency = 2100e+6Hz

# PhyLayer & Feedback parameters
**.lteNic.phy.channelModel=xmldoc("config_channel.xml")
**.feedbackComputation = xmldoc("config_channel.xml")

##########################################################
#              LTE specific parameters                   #
##########################################################

# Enable dynamic association of UEs (based on best SINR)
**.dynamicCellAssociation = true

**.car[*].masterId = 1     # useless if dynamic association is disabled
**.car[*].macCellId = 1    # useless if dynamic association is disabled
**.eNodeB1.macCellId = 1
**.eNodeB1.macNodeId = 1
**.eNodeB2.macCellId = 2
**.eNodeB2.macNodeId = 2 
**.eNodeBCount = 2

# AMC module parameters 
**.rbAllocationType = "localized"
**.feedbackType = "ALLBANDS"
**.feedbackGeneratorType = "IDEAL"
**.maxHarqRtx = 3
**.numUe = ${numUe=10}

# RUs
**.deployer.ruRange = 50
**.deployer.ruTxPower = "50,50,50;"
**.deployer.antennaCws = "2;" # !!MACRO + RUS (numRus + 1)
**.deployer.numRbDl = 75
**.deployer.numRbUl = 75
**.numBands = 10
**.fbDelay = 1

# Enable handover
**.enableHandover = true
**.broadcastMessageInterval = 0.5s

# X2 and SCTP configuration
*.eNodeB*.numX2Apps = 1    # one x2App per peering eNodeB
*.eNodeB*.x2App[*].server.localPort = 5000 + ancestorIndex(1) # Server ports (x2App[0]=5000, x2App[1]=5001, ...)
*.eNodeB1.x2App[0].client.connectAddress = "eNodeB2%x2ppp0" 
*.eNodeB2.x2App[0].client.connectAddress = "eNodeB1%x2ppp0" 
**.sctp.nagleEnabled = false         # if true, transmission of small packets will be delayed on the X2
**.sctp.enableHeartbeats = false



##########################################################
#                    App Layer                           #
##########################################################


# Server
*.server.numTcpApps = 10 #10, 20, 30
*.server.tcpApp[*].typename = "TCPGenericSrvApp"
*.server.tcpApp[*].localPort = 5001 + ancestorIndex(0)

# DASH_APP
*.car[*].numTcpApps = 1
*.car[*].tcpApp[*].typename = "TCPVideoStreamCliApp"
*.car[*].tcpApp[*].connectPort = 5001 + ancestorIndex(1)
*.car[*].tcpApp[*].connectAddress = "server"
*.car[*].tcpApp[*].dataTransferMode = "object"
*.car[*].tcpApp[*].numRequestsPerSession = 1000
*.car[*].tcpApp[*].idleInterval = 1s
*.car[*].tcpApp[*].startTime = 89s
*.car[*].tcpApp[*].stopTime = 90s
*.car[*].tcpApp[*].video_duration = 1000
*.car[*].tcpApp[*].thinkTime = 1s
*.car[*].tcpApp[*].video_buffer_max_length = 10




