<?xml version="1.0" encoding="UTF-8"?>

<!-- generated on Sun Aug  5 02:44:20 2018 by SUMO polyconvert Version 0.28.0
<?xml version="1.0" encoding="UTF-8"?>

<configuration xmlns:xsi="http://www.w3.org/2001/XMLSchema-instance" xsi:noNamespaceSchemaLocation="http://sumo.dlr.de/xsd/polyconvertConfiguration.xsd">

    <input>
        <net-file value="net.net.xml"/>
        <osm-files value="map.osm"/>
    </input>

    <output>
        <output-file value="map.poly.xml"/>
    </output>

    <processing>
        <poi-layer-offset value="5"/>
    </processing>

</configuration>
-->

<additional xmlns:xsi="http://www.w3.org/2001/XMLSchema-instance" xsi:noNamespaceSchemaLocation="http://sumo.dlr.de/xsd/additional_file.xsd">
    <location netOffset="-321770.07,2607359.65" convBoundary="-841.36,-106.61,2521.85,2081.08" origBoundary="-46.754546,-23.567941,-46.721586,-23.548235" projParameter="+proj=utm +zone=23 +ellps=WGS84 +datum=WGS84 +units=m +no_defs"/>

    <poly id="147219057" type="building" color="255,230,230" fill="1" layer="-1.00" shape="1369.85,1134.60 1338.42,1150.79 1342.72,1159.16 1344.58,1162.77 1347.58,1168.60 1379.03,1152.40 1381.06,1156.75 1369.88,1162.51 1374.01,1170.50 1349.70,1183.02 1350.61,1184.80 1341.10,1189.71 1324.05,1198.49 1328.88,1207.87 1391.21,1175.75 1399.76,1171.33 1471.20,1134.52 1466.22,1124.84 1439.89,1138.41 1439.08,1136.85 1406.27,1153.77 1402.19,1145.87 1390.16,1152.07 1388.04,1147.75 1391.12,1146.17 1415.78,1133.46 1418.27,1132.18 1419.32,1131.64 1410.15,1113.84 1409.20,1114.33 1378.82,1129.98 1369.85,1134.60"/>
    <poly id="147219058" type="building" color="255,230,230" fill="1" layer="-1.00" shape="1319.15,1129.07 1271.92,1153.02 1276.41,1161.87 1278.23,1165.28 1309.64,1149.13 1312.15,1153.94 1280.18,1170.42 1286.17,1182.01 1317.67,1165.77 1322.05,1173.60 1290.36,1189.93 1294.86,1198.67 1298.03,1197.04 1299.48,1200.14 1328.13,1185.84 1329.61,1188.60 1320.99,1193.35 1324.05,1198.49 1341.10,1189.71 1338.16,1184.03 1332.50,1187.07 1331.05,1184.46 1346.19,1176.52 1343.25,1170.74 1341.03,1171.85 1337.76,1165.50 1324.83,1172.17 1320.66,1164.22 1333.74,1157.48 1331.90,1153.91 1333.02,1153.34 1339.33,1165.54 1344.58,1162.77 1342.72,1159.16 1341.52,1159.71 1338.42,1150.79 1332.82,1135.67 1325.74,1139.57 1331.24,1149.88 1330.14,1150.49 1327.75,1145.88 1314.69,1152.62 1312.26,1147.81 1325.14,1141.12 1323.63,1137.93 1319.15,1129.07"/>
    <poly id="147219060" type="building" color="255,230,230" fill="1" layer="-1.00" shape="1378.82,1129.98 1375.54,1123.56 1376.12,1123.08 1376.68,1122.56 1377.21,1122.05 1377.73,1121.50 1378.24,1120.95 1378.73,1120.37 1379.20,1119.79 1379.65,1119.19 1380.09,1118.57 1380.50,1117.95 1380.89,1117.31 1381.26,1116.65 1381.62,1115.99 1381.94,1115.32 1382.26,1114.63 1382.54,1113.94 1382.80,1113.23 1383.05,1112.52 1383.27,1111.80 1383.47,1111.08 1383.65,1110.34 1383.80,1109.61 1383.93,1108.87 1384.03,1108.13 1384.11,1107.38 1384.17,1106.63 1384.21,1105.89 1384.22,1105.13 1384.21,1104.38 1384.18,1103.63 1384.11,1102.88 1384.03,1102.13 1383.93,1101.39 1383.79,1100.64 1383.64,1099.91 1383.46,1099.18 1383.27,1098.45 1383.05,1097.73 1382.81,1097.03 1382.54,1096.32 1382.25,1095.63 1381.94,1094.94 1381.61,1094.27 1381.27,1093.60 1380.89,1092.95 1380.49,1092.31 1380.08,1091.68 1379.65,1091.07 1379.20,1090.46 1378.73,1089.88 1378.24,1089.31 1377.74,1088.75 1377.22,1088.21 1376.67,1087.69 1376.12,1087.18 1375.55,1086.70 1374.96,1086.22 1374.36,1085.77 1373.75,1085.35 1373.12,1084.93 1372.47,1084.53 1371.82,1084.16 1371.16,1083.81 1370.48,1083.48 1369.80,1083.17 1369.10,1082.89 1368.40,1082.62 1367.69,1082.37 1366.98,1082.15 1366.24,1081.95 1365.51,1081.78 1364.78,1081.63 1364.04,1081.50 1363.30,1081.40 1362.55,1081.31 1361.80,1081.25 1361.05,1081.22 1360.30,1081.21 1359.54,1081.22 1358.80,1081.26 1358.04,1081.31 1357.30,1081.39 1356.55,1081.49 1355.81,1081.63 1355.08,1081.79 1354.35,1081.95 1353.62,1082.16 1352.90,1082.38 1352.20,1082.62 1351.49,1082.88 1350.79,1083.17 1350.11,1083.48 1349.44,1083.81 1348.77,1084.17 1348.12,1084.54 1347.48,1084.93 1346.85,1085.34 1346.24,1085.78 1345.64,1086.22 1345.05,1086.69 1344.47,1087.19 1343.92,1087.69 1343.38,1088.21 1342.86,1088.75 1342.35,1089.31 1341.87,1089.88 1341.39,1090.47 1340.94,1091.06 1340.51,1091.68 1340.09,1092.30 1339.71,1092.95 1339.33,1093.60 1338.98,1094.26 1338.65,1094.95 1338.34,1095.63 1338.05,1096.32 1337.79,1097.03 1337.55,1097.73 1337.32,1098.45 1337.12,1099.18 1336.95,1099.91 1336.80,1100.65 1336.66,1101.39 1336.56,1102.13 1336.48,1102.88 1336.42,1103.62 1336.38,1104.38 1336.37,1105.13 1336.39,1105.88 1336.42,1106.63 1336.48,1107.38 1336.56,1108.12 1336.67,1108.87 1336.80,1109.61 1336.95,1110.34 1337.13,1111.08 1337.32,1111.80 1337.54,1112.52 1337.79,1113.23 1338.05,1113.93 1338.34,1114.63 1338.65,1115.31 1338.98,1115.99 1339.33,1116.65 1339.71,1117.31 1340.10,1117.95 1340.51,1118.57 1340.94,1119.20 1341.39,1119.79 1341.87,1120.38 1342.35,1120.95 1342.85,1121.50 1343.38,1122.05 1343.92,1122.57 1344.48,1123.07 1345.04,1123.57 1345.63,1124.04 1346.24,1124.49 1346.85,1124.92 1347.47,1125.33 1348.12,1125.72 1348.77,1126.09 1349.44,1126.44 1350.11,1126.77 1350.79,1127.09 1351.49,1127.38 1352.19,1127.64 1352.91,1127.88 1353.63,1128.10 1354.35,1128.30 1355.08,1128.47 1355.82,1128.62 1356.55,1128.75 1357.29,1128.86 1358.05,1128.95 1358.79,1129.00 1359.55,1129.05 1360.29,1129.05 1361.05,1129.04 1361.79,1129.01 1362.55,1128.95 1363.30,1128.86 1364.04,1128.76 1364.78,1128.63 1365.52,1128.48 1366.48,1128.23 1369.85,1134.60 1378.82,1129.98"/>
    <poly id="151660795" type="amenity" color="237,199,199" fill="1" layer="-1.00" shape="1771.37,763.19 1831.61,732.44 1833.08,727.54 1805.52,673.57 1800.66,672.26 1771.37,763.19"/>
    <poly id="151660795#1" type="building" color="255,230,230" fill="1" layer="-1.00" shape="1771.37,763.19 1831.61,732.44 1833.08,727.54 1805.52,673.57 1800.66,672.26 1771.37,763.19"/>
    <poly id="152728525" type="commercial" color="209,209,204" fill="1" layer="-3.00" shape="1869.52,828.03 1871.09,811.63 1876.74,800.08 1888.19,790.98 2000.34,729.42 2014.50,724.12 2028.91,727.03 2045.87,746.39 2073.37,803.47 1902.79,891.34 1869.52,828.03"/>
    <poly id="152728527" type="amenity" color="237,199,199" fill="1" layer="-1.00" shape="1923.47,868.43 1959.70,849.56 1965.44,860.75 1971.80,857.47 1965.98,846.18 1969.40,844.42 1955.17,816.60 1908.84,840.43 1923.47,868.43"/>
    <poly id="152728527#1" type="building" color="255,230,230" fill="1" layer="-1.00" shape="1923.47,868.43 1959.70,849.56 1965.44,860.75 1971.80,857.47 1965.98,846.18 1969.40,844.42 1955.17,816.60 1908.84,840.43 1923.47,868.43"/>
    <poly id="152728529" type="amenity" color="237,199,199" fill="1" layer="-1.00" shape="1975.31,795.14 1962.82,771.92 1976.73,764.51 1989.24,787.75 1975.31,795.14"/>
    <poly id="152728529#1" type="building" color="255,230,230" fill="1" layer="-1.00" shape="1975.31,795.14 1962.82,771.92 1976.73,764.51 1989.24,787.75 1975.31,795.14"/>
    <poly id="152728531" type="amenity" color="237,199,199" fill="1" layer="-1.00" shape="2001.61,755.90 2012.75,777.21 2026.45,770.12 2015.31,748.81 2001.61,755.90"/>
    <poly id="152728531#1" type="building" color="255,230,230" fill="1" layer="-1.00" shape="2001.61,755.90 2012.75,777.21 2026.45,770.12 2015.31,748.81 2001.61,755.90"/>
    <poly id="152728533" type="amenity" color="237,199,199" fill="1" layer="-1.00" shape="1923.85,824.21 1912.23,801.82 1926.36,794.55 1937.99,816.95 1923.85,824.21"/>
    <poly id="152728533#1" type="building" color="255,230,230" fill="1" layer="-1.00" shape="1923.85,824.21 1912.23,801.82 1926.36,794.55 1937.99,816.95 1923.85,824.21"/>
    <poly id="152728534" type="building" color="255,230,230" fill="1" layer="-1.00" shape="2022.01,820.93 2011.92,800.99 2001.62,806.14 1996.38,795.80 2016.99,785.48 2024.54,800.38 2027.20,799.04 2030.43,805.39 2027.75,806.72 2032.33,815.77 2022.01,820.93"/>
    <poly id="152728535" type="amenity" color="237,199,199" fill="1" layer="-1.00" shape="1906.51,835.64 1891.79,807.76 1907.74,799.44 1922.45,827.31 1906.51,835.64"/>
    <poly id="152728535#1" type="building" color="255,230,230" fill="1" layer="-1.00" shape="1906.51,835.64 1891.79,807.76 1907.74,799.44 1922.45,827.31 1906.51,835.64"/>
    <poly id="152728541" type="amenity" color="237,199,199" fill="1" layer="-1.00" shape="1989.82,804.51 2003.21,829.94 2000.22,836.18 1989.47,840.40 1979.54,838.27 1972.69,822.75 1976.27,810.53 1989.82,804.51"/>
    <poly id="152728541#1" type="building" color="255,230,230" fill="1" layer="-1.00" shape="1989.82,804.51 2003.21,829.94 2000.22,836.18 1989.47,840.40 1979.54,838.27 1972.69,822.75 1976.27,810.53 1989.82,804.51"/>
    <poly id="152732603" type="amenity" color="237,199,199" fill="1" layer="-1.00" shape="1140.22,702.28 1154.55,701.16 1153.06,682.00 1189.43,679.19 1191.41,704.49 1140.71,708.41 1140.22,702.28"/>
    <poly id="152732603#1" type="building" color="255,230,230" fill="1" layer="-1.00" shape="1140.22,702.28 1154.55,701.16 1153.06,682.00 1189.43,679.19 1191.41,704.49 1140.71,708.41 1140.22,702.28"/>
    <poly id="152732604" type="amenity" color="237,199,199" fill="1" layer="-1.00" shape="1379.87,932.76 1369.84,828.24 1369.40,823.59 1360.37,811.32 1341.63,802.48 1323.17,804.23 1037.58,831.24 1379.87,932.76"/>
    <poly id="152732605" type="amenity" color="237,199,199" fill="1" layer="-1.00" shape="1098.21,686.54 1099.91,712.51 1088.85,713.43 1074.46,714.63 1073.02,697.61 1072.30,688.76 1098.21,686.54"/>
    <poly id="152732605#1" type="building" color="255,230,230" fill="1" layer="-1.00" shape="1098.21,686.54 1099.91,712.51 1088.85,713.43 1074.46,714.63 1073.02,697.61 1072.30,688.76 1098.21,686.54"/>
    <poly id="152732610" type="building" color="255,230,230" fill="1" layer="-1.00" shape="1128.98,743.43 1180.60,738.74 1181.46,748.19 1129.86,752.88 1128.98,743.43"/>
    <poly id="152732610#1" type="leisure" color="207,245,201" fill="1" layer="-2.00" shape="1128.98,743.43 1180.60,738.74 1181.46,748.19 1129.86,752.88 1128.98,743.43"/>
    <poly id="152732611" type="building" color="255,230,230" fill="1" layer="-1.00" shape="1192.61,737.12 1213.40,735.54 1214.17,745.44 1193.37,747.02 1192.61,737.12"/>
    <poly id="152732611#1" type="leisure" color="207,245,201" fill="1" layer="-2.00" shape="1192.61,737.12 1213.40,735.54 1214.17,745.44 1193.37,747.02 1192.61,737.12"/>
    <poly id="152732614" type="building" color="255,230,230" fill="1" layer="-1.00" shape="1096.85,746.73 1097.70,755.76 1117.10,753.95 1116.25,744.93 1096.85,746.73"/>
    <poly id="152732614#1" type="leisure" color="207,245,201" fill="1" layer="-2.00" shape="1096.85,746.73 1097.70,755.76 1117.10,753.95 1116.25,744.93 1096.85,746.73"/>
    <poly id="152921635" type="building" color="255,230,230" fill="1" layer="-1.00" shape="1099.91,712.51 1105.03,712.08 1119.12,710.90 1117.92,696.23 1117.34,689.52 1113.45,689.83 1113.28,687.87 1113.20,686.88 1113.03,685.22 1110.42,685.49 1098.21,686.54 1099.91,712.51"/>
    <poly id="153921470" type="amenity" color="237,199,199" fill="1" layer="-1.00" shape="2049.51,990.85 2047.07,986.07 2043.82,987.65 2041.36,982.82 2044.53,981.10 2040.10,972.47 2039.64,973.65 2038.25,973.07 2037.82,974.49 2036.45,974.01 2036.08,975.44 2034.66,974.93 2034.17,976.31 2032.80,975.87 2032.32,977.26 2031.00,976.86 2030.67,978.15 2029.20,977.75 2028.80,979.15 2027.43,978.62 2026.98,980.08 2025.60,979.63 2025.18,980.99 2023.81,980.54 2023.30,981.82 2022.05,981.44 2021.62,982.75 2020.20,982.39 2019.78,983.77 2018.40,983.29 2017.98,984.64 2016.53,984.26 2025.83,1002.26 2049.51,990.85"/>
    <poly id="153921470#1" type="building" color="255,230,230" fill="1" layer="-1.00" shape="2049.51,990.85 2047.07,986.07 2043.82,987.65 2041.36,982.82 2044.53,981.10 2040.10,972.47 2039.64,973.65 2038.25,973.07 2037.82,974.49 2036.45,974.01 2036.08,975.44 2034.66,974.93 2034.17,976.31 2032.80,975.87 2032.32,977.26 2031.00,976.86 2030.67,978.15 2029.20,977.75 2028.80,979.15 2027.43,978.62 2026.98,980.08 2025.60,979.63 2025.18,980.99 2023.81,980.54 2023.30,981.82 2022.05,981.44 2021.62,982.75 2020.20,982.39 2019.78,983.77 2018.40,983.29 2017.98,984.64 2016.53,984.26 2025.83,1002.26 2049.51,990.85"/>
    <poly id="153921485" type="building" color="255,230,230" fill="1" layer="-1.00" shape="2064.87,1064.15 2062.85,1060.21 2054.55,1044.16 2014.53,1064.83 2035.15,1104.76 2075.18,1084.10 2064.87,1064.15"/>
    <poly id="153921983" type="building" color="255,230,230" fill="1" layer="-1.00" shape="1813.66,1014.40 1867.46,987.13 1860.37,972.05 1806.21,999.79 1813.66,1014.40"/>
    <poly id="153921984" type="amenity" color="237,199,199" fill="1" layer="-1.00" shape="1765.58,1044.40 1805.71,1023.68 1775.92,965.57 1735.56,986.26 1765.58,1044.40"/>
    <poly id="153921984#1" type="building" color="255,230,230" fill="1" layer="-1.00" shape="1765.58,1044.40 1805.71,1023.68 1775.92,965.57 1735.56,986.26 1765.58,1044.40"/>
    <poly id="153921985" type="building" color="255,230,230" fill="1" layer="-1.00" shape="1698.65,986.70 1773.33,948.30 1847.99,909.92 1818.94,853.58 1744.35,892.00 1669.73,930.43 1698.65,986.70"/>
    <poly id="153921988" type="building" color="255,230,230" fill="1" layer="-1.00" shape="1806.01,996.30 1858.47,969.55 1851.08,955.19 1824.90,968.68 1798.72,982.19 1806.01,996.30"/>
    <poly id="153921989" type="building" color="255,230,230" fill="1" layer="-1.00" shape="1794.08,973.34 1846.41,946.38 1839.29,932.05 1813.03,945.52 1786.77,958.99 1794.08,973.34"/>
    <poly id="153921990" type="building" color="255,230,230" fill="1" layer="-1.00" shape="1743.88,1049.76 1747.53,1047.88 1747.86,1046.68 1745.33,1041.65 1743.99,1041.41 1743.37,1040.18 1750.42,1036.57 1741.82,1019.47 1740.83,1019.97 1739.48,1017.31 1740.22,1016.93 1740.34,1016.53 1738.92,1013.69 1737.49,1010.86 1736.93,1010.72 1736.13,1011.12 1734.78,1008.44 1735.96,1007.84 1727.48,990.98 1720.57,994.52 1720.20,995.91 1717.45,997.31 1715.96,996.89 1709.38,1000.26 1717.98,1016.95 1719.00,1016.43 1719.81,1017.89 1719.25,1019.43 1722.87,1026.45 1724.30,1026.79 1725.00,1028.15 1723.99,1028.62 1732.77,1045.65 1739.92,1041.97 1740.56,1043.35 1740.17,1044.63 1742.78,1049.44 1743.88,1049.76"/>
    <poly id="153922309" type="amenity" color="237,199,199" fill="1" layer="-1.00" shape="1917.42,912.58 1964.86,888.46 2042.25,1038.93 2172.80,972.55 2188.98,1003.98 2250.95,972.47 2307.85,1083.09 2202.21,1136.81 2195.60,1123.93 2152.26,1145.97 2126.93,1096.76 2035.97,1143.02 1917.42,912.58"/>
    <poly id="153922310" type="amenity" color="237,199,199" fill="1" layer="-1.00" shape="1544.47,749.94 1595.63,724.60 1779.43,633.57 1818.92,606.97 1852.67,580.31 1909.63,685.82 1924.15,712.72 1617.46,869.83 1609.19,866.11 1544.47,749.94"/>
    <poly id="153922311" type="building" color="255,230,230" fill="1" layer="-1.00" shape="1864.14,699.17 1852.32,688.58 1852.07,683.23 1851.56,672.43 1862.68,660.69 1873.56,669.37 1875.24,688.39 1864.14,699.17"/>
    <poly id="153959719" type="amenity" color="237,199,199" fill="1" layer="-1.00" shape="655.17,893.33 655.18,892.81 655.25,889.31 690.90,890.00 690.94,888.02 701.53,888.23 701.83,872.48 697.82,872.40 697.84,871.60 679.36,871.23 679.39,869.87 672.57,869.73 672.54,870.95 636.05,870.24 635.83,882.79 634.21,882.76 634.11,887.78 628.96,887.68 628.85,892.82 644.99,893.13 655.17,893.33"/>
    <poly id="153959719#1" type="building" color="255,230,230" fill="1" layer="-1.00" shape="655.17,893.33 655.18,892.81 655.25,889.31 690.90,890.00 690.94,888.02 701.53,888.23 701.83,872.48 697.82,872.40 697.84,871.60 679.36,871.23 679.39,869.87 672.57,869.73 672.54,870.95 636.05,870.24 635.83,882.79 634.21,882.76 634.11,887.78 628.96,887.68 628.85,892.82 644.99,893.13 655.17,893.33"/>
    <poly id="153959727" type="amenity" color="237,199,199" fill="1" layer="-1.00" shape="727.87,867.58 728.26,852.53 733.01,852.66 733.16,848.87 734.21,848.83 733.42,866.55 746.77,867.16 747.26,849.54 751.98,849.64 752.18,839.44 749.12,839.45 749.36,824.51 736.12,824.13 735.71,839.01 720.37,838.50 719.51,867.10 727.87,867.58"/>
    <poly id="153959727#1" type="building" color="255,230,230" fill="1" layer="-1.00" shape="727.87,867.58 728.26,852.53 733.01,852.66 733.16,848.87 734.21,848.83 733.42,866.55 746.77,867.16 747.26,849.54 751.98,849.64 752.18,839.44 749.12,839.45 749.36,824.51 736.12,824.13 735.71,839.01 720.37,838.50 719.51,867.10 727.87,867.58"/>
    <poly id="153959733" type="building" color="255,230,230" fill="1" layer="-1.00" shape="1312.60,953.05 1314.42,947.33 1317.58,948.35 1319.15,943.44 1316.37,942.54 1317.93,937.63 1255.47,917.71 1250.46,933.41 1312.60,953.05"/>
    <poly id="153959737" type="building" color="255,230,230" fill="1" layer="-1.00" shape="1107.66,931.27 1111.92,917.98 1066.55,903.45 1062.29,916.75 1107.66,931.27"/>
    <poly id="153959739" type="building" color="255,230,230" fill="1" layer="-1.00" shape="1173.93,907.08 1181.46,883.15 1164.66,877.86 1157.13,901.79 1173.93,907.08"/>
    <poly id="153959740" type="building" color="255,230,230" fill="1" layer="-1.00" shape="1268.39,1018.04 1272.78,1004.29 1195.00,979.45 1190.61,993.21 1268.39,1018.04"/>
    <poly id="153959741" type="building" color="255,230,230" fill="1" layer="-1.00" shape="1100.15,891.18 1106.09,872.64 1057.43,857.03 1059.46,850.71 1053.26,848.72 1051.07,855.57 1052.55,856.05 1048.97,867.23 1053.45,868.67 1051.27,875.49 1100.15,891.18"/>
    <poly id="153959743" type="building" color="255,230,230" fill="1" layer="-1.00" shape="1338.98,955.56 1349.73,954.72 1347.99,932.54 1326.03,934.27 1327.27,949.99 1338.46,949.12 1338.98,955.56"/>
    <poly id="153959744" type="building" color="255,230,230" fill="1" layer="-1.00" shape="1246.97,932.14 1252.08,916.21 1210.80,902.97 1205.70,918.90 1246.97,932.14"/>
    <poly id="153959749" type="building" color="255,230,230" fill="1" layer="-1.00" shape="1084.37,956.45 1086.94,948.18 1079.53,945.89 1080.10,944.04 1100.65,950.42 1104.14,939.18 1083.58,932.81 1083.03,934.57 1080.60,933.81 1081.19,931.88 1060.26,925.39 1056.74,936.72 1077.24,943.07 1076.69,944.85 1071.50,943.25 1068.89,951.65 1084.37,956.45"/>
    <poly id="153959758" type="parking" color="184,184,179" fill="1" layer="-1.00" shape="1468.74,1217.16 1594.74,1445.89 1674.88,1402.54 1576.34,1213.76 1593.31,1205.36 1567.39,1157.44 1606.23,1136.68 1585.46,1098.27 1546.62,1119.03 1545.06,1116.15 1530.46,1108.22 1509.74,1102.81 1500.85,1087.21 1530.18,1071.68 1490.32,995.34 1449.04,1016.29 1525.44,1165.39 1315.67,1265.68 1327.52,1287.76 1468.74,1217.16"/>
    <poly id="154073978" type="parking" color="184,184,179" fill="1" layer="-1.00" shape="1788.78,659.97 1776.34,635.71 1599.29,725.05 1549.39,750.71 1561.83,774.97 1788.78,659.97"/>
    <poly id="154073979" type="parking" color="184,184,179" fill="1" layer="-1.00" shape="1542.67,1026.94 1587.27,1004.36 1599.14,1027.07 1683.12,983.98 1648.44,915.88 1519.27,981.25 1542.67,1026.94"/>
    <poly id="154079141" type="building" color="255,230,230" fill="1" layer="-1.00" shape="1507.81,890.38 1541.24,885.68 1529.00,799.03 1495.54,803.58 1507.81,890.38"/>
    <poly id="154079142" type="building" color="255,230,230" fill="1" layer="-1.00" shape="1448.75,820.91 1452.09,844.11 1416.19,849.27 1417.45,858.08 1408.60,859.36 1411.21,877.48 1446.70,872.39 1450.49,898.76 1459.75,897.43 1458.52,888.86 1467.44,887.57 1468.70,896.41 1477.58,895.13 1472.48,859.65 1481.57,858.35 1473.82,804.52 1447.09,808.36 1448.24,816.35 1448.75,820.91"/>
    <poly id="154079143" type="building" color="255,230,230" fill="1" layer="-1.00" shape="1436.96,930.32 1458.60,927.26 1458.89,929.26 1464.15,928.53 1463.88,926.70 1484.64,923.82 1484.91,925.70 1490.53,924.92 1490.26,923.00 1516.32,919.44 1514.72,907.91 1456.99,915.80 1435.32,918.86 1436.96,930.32"/>
    <poly id="154079144" type="building" color="255,230,230" fill="1" layer="-1.00" shape="1438.25,816.52 1438.94,821.06 1441.05,835.75 1423.03,838.33 1419.11,811.08 1437.10,808.51 1438.25,816.52"/>
    <poly id="154079145" type="amenity" color="237,199,199" fill="1" layer="-1.00" shape="1464.08,783.99 1455.41,785.11 1423.52,789.25 1403.79,793.99 1393.29,800.39 1384.68,811.41 1381.04,825.17 1395.55,965.34 1400.02,978.05 1408.42,984.68 1414.08,984.48 1418.10,982.49 1458.81,961.51 1520.01,929.95 1589.65,894.05 1523.35,762.08 1510.91,771.13 1499.27,776.35 1481.86,781.14 1464.08,783.99"/>
    <poly id="154079152" type="parking" color="184,184,179" fill="1" layer="-1.00" shape="1207.72,862.33 1246.96,859.26 1246.18,874.87 1217.43,875.54 1214.70,871.08 1208.74,870.97 1207.72,862.33"/>
    <poly id="154079153" type="parking" color="184,184,179" fill="1" layer="-1.00" shape="1318.23,813.47 1322.00,871.82 1316.67,872.09 1317.38,887.69 1323.38,887.29 1324.66,905.62 1363.67,902.74 1364.60,914.80 1370.23,914.12 1364.48,828.82 1329.33,831.24 1328.05,812.79 1323.76,813.08 1318.23,813.47"/>
    <poly id="154205440" type="building" color="255,230,230" fill="1" layer="-1.00" shape="1266.87,747.05 1280.81,745.73 1279.07,727.30 1287.02,726.56 1286.52,721.16 1265.29,723.15 1264.92,719.31 1257.58,720.00 1259.32,738.36 1265.52,737.77 1265.68,739.45 1268.97,739.14 1269.14,740.92 1266.31,741.19 1266.87,747.05"/>
    <poly id="154246451" type="amenity" color="237,199,199" fill="1" layer="-1.00" shape="1913.75,451.66 1927.18,457.67 1937.14,463.30 1962.51,512.83 1969.66,523.24 1981.26,536.81 2040.43,654.56 1928.63,710.70 1856.85,576.62 1864.99,561.57 1893.50,465.53 1898.47,455.61 1913.75,451.66"/>
    <poly id="158785421" type="building" color="255,230,230" fill="1" layer="-1.00" shape="2015.12,1046.62 2015.75,1046.27 2015.88,1046.51 2029.68,1039.48 2029.48,1039.15 2030.20,1038.83 1981.89,944.98 1981.19,945.26 1977.51,938.23 1978.16,937.92 1959.46,901.65 1944.42,909.51 1963.08,945.85 1963.81,945.55 1967.35,952.40 1966.75,952.75 1969.50,958.09 1972.55,964.02 1992.85,1003.46 1993.49,1003.10 1997.04,1009.94 1996.41,1010.30 2015.12,1046.62"/>
    <poly id="158789266" type="amenity" color="237,199,199" fill="1" layer="-1.00" shape="1080.13,814.18 1061.98,802.63 1044.54,786.83 1027.82,766.08 1013.76,741.13 1006.27,711.55 996.58,649.54 990.22,528.34 1373.26,494.01 1390.14,502.01 1406.27,517.79 1414.46,542.68 1407.53,575.18 1390.15,609.68 1356.70,679.06 1340.75,697.14 1334.12,712.54 1327.60,727.92 1313.27,757.50 1288.74,787.66 1266.39,799.43 1080.13,814.18"/>
    <poly id="158960182" type="building" color="255,230,230" fill="1" layer="-1.00" shape="1409.20,1114.33 1410.15,1113.84 1419.32,1131.64 1418.27,1132.18 1418.92,1133.41 1439.47,1122.89 1438.19,1120.38 1469.37,1104.38 1464.23,1094.35 1469.07,1091.75 1476.61,1087.66 1471.95,1078.48 1464.02,1082.70 1459.88,1084.97 1454.93,1075.28 1416.66,1094.84 1405.72,1073.16 1391.64,1080.32 1409.20,1114.33"/>
    <poly id="158960184" type="building" color="255,230,230" fill="1" layer="-1.00" shape="1690.83,1032.59 1690.28,1031.54 1686.55,1024.28 1684.02,1019.34 1678.69,1008.95 1657.87,1019.64 1647.33,1025.04 1642.53,1027.51 1600.18,1049.25 1596.13,1051.33 1550.25,1074.89 1562.39,1098.52 1633.38,1062.08 1633.85,1062.76 1605.30,1077.28 1606.18,1078.58 1585.02,1089.94 1595.91,1111.15 1610.29,1139.18 1631.79,1128.14 1632.85,1130.23 1661.07,1115.72 1661.18,1116.02 1597.05,1148.92 1609.20,1172.61 1694.72,1128.75 1695.61,1130.40 1701.32,1127.48 1702.23,1129.09 1711.06,1124.42 1709.31,1121.26 1697.83,1098.85 1697.16,1097.56 1686.77,1102.89 1675.94,1108.45 1674.81,1106.28 1673.50,1103.76 1648.03,1054.56 1690.83,1032.59"/>
    <poly id="158960188" type="building" color="255,230,230" fill="1" layer="-1.00" shape="1729.97,1108.25 1744.53,1100.72 1716.41,1046.33 1701.86,1053.86 1729.97,1108.25"/>
    <poly id="158966873" type="amenity" color="237,199,199" fill="1" layer="-1.00" shape="1247.73,1141.02 1259.28,1127.69 1263.35,1116.35 1264.37,1104.04 1495.76,984.01 1525.03,1041.79 1588.50,1010.02 1598.83,1030.76 1688.50,983.73 1777.85,1154.82 1706.60,1190.48 1799.34,1367.05 2046.52,1242.47 2120.04,1381.35 2119.92,1390.83 2114.61,1396.45 1533.50,1696.26 1525.61,1697.59 1519.99,1693.25 1508.38,1676.99 1293.19,1251.40 1247.25,1147.58 1247.73,1141.02"/>
    <poly id="158966874" type="amenity" color="237,199,199" fill="1" layer="-1.00" shape="1587.77,1006.59 1539.22,1033.61 1508.93,977.05 1801.62,834.25 1815.63,832.53 1829.99,837.92 1840.82,845.63 1907.42,978.74 1810.88,1024.40 1732.43,1061.51 1691.16,980.97 1598.42,1028.61 1587.77,1006.59"/>
    <poly id="158966879" type="amenity" color="237,199,199" fill="1" layer="-1.00" shape="1636.06,815.87 1641.60,813.02 1733.82,765.64 1703.47,706.74 1611.83,754.05 1605.63,757.25 1636.06,815.87"/>
    <poly id="158966879#1" type="building" color="255,230,230" fill="1" layer="-1.00" shape="1636.06,815.87 1641.60,813.02 1733.82,765.64 1703.47,706.74 1611.83,754.05 1605.63,757.25 1636.06,815.87"/>
    <poly id="159420781" type="building" color="255,230,230" fill="1" layer="-1.00" shape="1676.14,650.12 1805.20,583.43 1797.81,568.73 1668.43,635.18 1676.14,650.12"/>
    <poly id="159420792" type="amenity" color="237,199,199" fill="1" layer="-1.00" shape="1801.05,1123.07 1795.31,1125.96 1792.74,1120.78 1785.06,1124.65 1769.40,1093.62 1767.61,1094.40 1767.06,1094.52 1763.18,1086.39 1762.54,1086.09 1753.94,1083.46 1753.73,1082.97 1757.33,1072.16 1760.41,1059.38 1772.20,1064.03 1772.34,1063.95 1778.82,1076.96 1777.90,1077.32 1781.71,1085.27 1782.96,1085.40 1784.28,1086.08 1785.21,1087.27 1785.58,1088.44 1785.63,1089.78 1785.35,1090.84 1785.05,1091.56 1798.58,1117.81 1801.05,1123.07"/>
    <poly id="159420792#1" type="building" color="255,230,230" fill="1" layer="-1.00" shape="1801.05,1123.07 1795.31,1125.96 1792.74,1120.78 1785.06,1124.65 1769.40,1093.62 1767.61,1094.40 1767.06,1094.52 1763.18,1086.39 1762.54,1086.09 1753.94,1083.46 1753.73,1082.97 1757.33,1072.16 1760.41,1059.38 1772.20,1064.03 1772.34,1063.95 1778.82,1076.96 1777.90,1077.32 1781.71,1085.27 1782.96,1085.40 1784.28,1086.08 1785.21,1087.27 1785.58,1088.44 1785.63,1089.78 1785.35,1090.84 1785.05,1091.56 1798.58,1117.81 1801.05,1123.07"/>
    <poly id="159420801" type="building" color="255,230,230" fill="1" layer="-1.00" shape="1938.60,669.67 1978.71,648.70 1982.77,656.82 2014.75,640.33 2006.56,624.52 1974.56,640.95 1970.40,632.79 2002.37,616.30 1994.08,600.25 1962.19,616.90 1957.99,608.82 1989.96,592.62 1981.81,576.39 1949.89,592.75 1945.67,584.94 1977.71,568.25 1969.48,552.36 1937.80,568.88 1933.57,560.65 1932.86,560.97 1929.02,552.80 1937.10,548.62 1933.19,540.60 1941.20,536.68 1945.05,544.50 1961.02,536.52 1948.80,512.32 1932.83,520.54 1936.93,528.68 1912.90,541.01 1920.86,556.86 1872.81,581.52 1885.38,606.07 1933.30,581.32 1941.59,597.07 1909.77,613.45 1913.96,621.63 1945.88,605.37 1949.92,613.12 1918.03,629.51 1922.18,637.82 1954.12,621.12 1958.14,628.92 1926.19,645.47 1930.37,653.77 1962.30,637.13 1966.33,645.05 1934.48,661.55 1938.60,669.67"/>
    <poly id="159420828" type="parking" color="184,184,179" fill="1" layer="-1.00" shape="1774.95,1058.97 1808.20,1123.64 1841.01,1106.97 1807.76,1042.30 1774.95,1058.97"/>
    <poly id="166628579" type="parking" color="184,184,179" fill="1" layer="-1.00" shape="1122.98,677.98 1120.08,643.09 1152.16,640.45 1154.33,666.54 1135.46,668.09 1136.19,676.90 1122.98,677.98"/>
    <poly id="171955731" type="forest" color="140,196,107" fill="1" layer="-4.00" shape="1531.12,14.11 1519.61,15.41 1511.27,10.99 1505.20,0.85 1492.38,0.69 1342.08,72.73 1337.99,82.28 1340.37,104.36 1342.89,115.43 1339.66,126.91 1330.32,131.59 1305.52,135.60 1295.74,139.80 1290.33,148.85 1281.47,186.14 1274.73,195.18 1256.50,204.07 1232.43,220.09 1221.20,234.34 1214.39,250.08 1216.78,271.69 1218.54,345.09 1226.82,355.26 1279.50,385.15 1284.26,393.85 1305.31,444.93 1351.93,428.72 1360.70,434.09 1372.50,445.74 1384.66,463.16 1392.02,477.16 1398.11,484.91 1395.32,496.38 1399.02,519.45 1406.79,534.89 1410.11,545.65 1424.37,549.33 1439.47,551.34 1468.97,556.46 1491.30,560.84 1510.64,572.41 1521.00,595.26 1523.57,602.49 1524.27,617.84 1532.65,619.38 1538.80,658.78 1528.61,661.05 1529.26,680.24 1534.25,706.21 1570.28,688.41 1626.08,643.53 1658.77,608.92 1681.69,578.98 1696.48,561.89 1717.06,541.04 1729.62,526.80 1739.12,508.21 1745.14,486.22 1745.81,467.05 1743.04,440.15 1741.97,418.57 1745.86,390.31 1753.71,362.11 1772.82,317.26 1776.22,292.36 1773.37,272.18 1766.29,251.82 1756.24,249.86 1744.18,252.23 1727.95,255.77 1659.73,353.99 1607.98,319.31 1573.48,290.42 1539.21,256.23 1520.73,229.44 1516.03,201.93 1517.09,187.55 1530.53,172.38 1534.22,159.95 1533.77,88.01 1541.45,73.71 1553.44,69.06 1571.18,64.96 1562.51,14.49 1555.05,10.09 1545.29,12.36 1531.12,14.11"/>
    <poly id="174636308" type="amenity" color="237,199,199" fill="0" layer="-1.00" shape="502.74,411.42 501.04,415.27 496.15,443.19 498.02,462.26 495.74,478.79 469.93,531.98 377.37,678.09 355.08,709.31 354.90,728.33 367.61,749.21 393.88,761.89 428.24,769.96 473.75,770.03 504.91,766.32 852.74,770.40 881.68,482.12 968.07,449.18 984.12,528.13 1392.96,490.99 1392.09,485.22 1375.57,455.52 1363.85,442.15 1349.16,431.77 1303.55,449.08 1278.00,387.77 1217.09,352.18 1209.70,238.82 1257.71,197.38 1271.86,190.76 1277.57,184.05 1289.78,139.57 1301.33,132.45 1322.95,127.97 1332.70,123.33 1337.48,115.59 1336.65,106.77 1319.41,52.00 1303.52,23.60 1237.52,11.96 1217.02,-7.73 1176.91,-26.34 1142.40,-36.54 1103.15,-42.96 1068.76,-106.61 884.80,7.26 853.88,37.18 845.54,47.51 833.93,61.88 825.80,71.94 810.59,97.07 769.82,172.25"/>