<?xml version="1.0" encoding="UTF-8"?>

<!-- generated on Sun Aug  5 02:41:41 2018 by SUMO netconvert Version 0.28.0
<?xml version="1.0" encoding="UTF-8"?>

<configuration xmlns:xsi="http://www.w3.org/2001/XMLSchema-instance" xsi:noNamespaceSchemaLocation="http://sumo.dlr.de/xsd/netconvertConfiguration.xsd">

    <input>
        <osm-files value="map.osm"/>
    </input>

    <projection>
        <proj.utm value="true"/>
    </projection>

</configuration>
-->

<net version="0.27" xmlns:xsi="http://www.w3.org/2001/XMLSchema-instance" xsi:noNamespaceSchemaLocation="http://sumo.dlr.de/xsd/net_file.xsd">

    <location netOffset="-321770.07,2607359.65" convBoundary="0.00,0.00,2521.85,1759.74" origBoundary="-46.754546,-23.567040,-46.721586,-23.548320" projParameter="+proj=utm +zone=23 +ellps=WGS84 +datum=WGS84 +units=m +no_defs"/>

    <type id="highway.bridleway" priority="1" numLanes="1" speed="2.78" allow="pedestrian" oneway="1" width="2.00"/>
    <type id="highway.bus_guideway" priority="1" numLanes="1" speed="27.78" allow="bus" oneway="1"/>
    <type id="highway.cycleway" priority="1" numLanes="1" speed="8.33" allow="bicycle" oneway="0" width="1.00"/>
    <type id="highway.footway" priority="1" numLanes="1" speed="2.78" allow="pedestrian" oneway="1" width="2.00"/>
    <type id="highway.ford" priority="1" numLanes="1" speed="2.78" allow="army" oneway="0"/>
    <type id="highway.living_street" priority="3" numLanes="1" speed="2.78" disallow="tram rail_urban rail rail_electric ship" oneway="0"/>
    <type id="highway.motorway" priority="13" numLanes="2" speed="44.44" allow="private emergency authority army vip passenger hov taxi bus coach delivery truck trailer motorcycle evehicle custom1 custom2" oneway="1"/>
    <type id="highway.motorway_link" priority="12" numLanes="1" speed="22.22" allow="private emergency authority army vip passenger hov taxi bus coach delivery truck trailer motorcycle evehicle custom1 custom2" oneway="1"/>
    <type id="highway.path" priority="1" numLanes="1" speed="2.78" allow="bicycle pedestrian" oneway="1" width="2.00"/>
    <type id="highway.pedestrian" priority="1" numLanes="1" speed="2.78" allow="pedestrian" oneway="1" width="2.00"/>
    <type id="highway.primary" priority="9" numLanes="2" speed="27.78" disallow="tram rail_urban rail rail_electric ship" oneway="0"/>
    <type id="highway.primary_link" priority="8" numLanes="1" speed="22.22" disallow="tram rail_urban rail rail_electric ship" oneway="0"/>
    <type id="highway.raceway" priority="14" numLanes="2" speed="83.33" allow="vip" oneway="0"/>
    <type id="highway.residential" priority="4" numLanes="1" speed="13.89" disallow="tram rail_urban rail rail_electric ship" oneway="0"/>
    <type id="highway.secondary" priority="7" numLanes="2" speed="27.78" disallow="tram rail_urban rail rail_electric ship" oneway="0"/>
    <type id="highway.secondary_link" priority="6" numLanes="1" speed="22.22" disallow="tram rail_urban rail rail_electric ship" oneway="0"/>
    <type id="highway.service" priority="2" numLanes="1" speed="5.56" allow="delivery bicycle pedestrian" oneway="0"/>
    <type id="highway.stairs" priority="1" numLanes="1" speed="1.39" allow="pedestrian" oneway="1" width="2.00"/>
    <type id="highway.step" priority="1" numLanes="1" speed="1.39" allow="pedestrian" oneway="1" width="2.00"/>
    <type id="highway.steps" priority="1" numLanes="1" speed="1.39" allow="pedestrian" oneway="1" width="2.00"/>
    <type id="highway.tertiary" priority="6" numLanes="1" speed="22.22" disallow="tram rail_urban rail rail_electric ship" oneway="0"/>
    <type id="highway.tertiary_link" priority="5" numLanes="1" speed="22.22" disallow="tram rail_urban rail rail_electric ship" oneway="0"/>
    <type id="highway.track" priority="1" numLanes="1" speed="5.56" disallow="tram rail_urban rail rail_electric ship" oneway="0"/>
    <type id="highway.trunk" priority="11" numLanes="2" speed="27.78" disallow="tram rail_urban rail rail_electric bicycle pedestrian ship" oneway="0"/>
    <type id="highway.trunk_link" priority="10" numLanes="1" speed="22.22" disallow="tram rail_urban rail rail_electric bicycle pedestrian ship" oneway="0"/>
    <type id="highway.unclassified" priority="5" numLanes="1" speed="13.89" disallow="tram rail_urban rail rail_electric ship" oneway="0"/>
    <type id="highway.unsurfaced" priority="1" numLanes="1" speed="8.33" disallow="tram rail_urban rail rail_electric ship" oneway="0"/>
    <type id="railway.light_rail" priority="15" numLanes="1" speed="27.78" allow="rail_urban" oneway="1"/>
    <type id="railway.preserved" priority="15" numLanes="1" speed="27.78" allow="rail" oneway="1"/>
    <type id="railway.rail" priority="15" numLanes="1" speed="83.33" allow="rail rail_electric" oneway="1"/>
    <type id="railway.subway" priority="15" numLanes="1" speed="27.78" allow="rail_urban" oneway="1"/>
    <type id="railway.tram" priority="15" numLanes="1" speed="13.89" allow="tram" oneway="1"/>

    <edge id=":1605039195_0" function="internal">
        <lane id=":1605039195_0_0" index="0" disallow="tram rail_urban rail rail_electric ship" speed="22.22" length="4.97" shape="816.86,859.41 812.05,858.17"/>
    </edge>
    <edge id=":1605039195_1" function="internal">
        <lane id=":1605039195_1_0" index="0" disallow="tram rail_urban rail rail_electric ship" speed="22.22" length="4.99" shape="816.12,855.29 812.05,858.17"/>
    </edge>
    <edge id=":1605039196_0" function="internal">
        <lane id=":1605039196_0_0" index="0" allow="delivery bicycle pedestrian" speed="13.89" length="4.88" shape="782.42,852.84 781.36,852.05 780.28,851.76 779.18,851.96 778.06,852.65"/>
    </edge>
    <edge id=":1605039196_1" function="internal">
        <lane id=":1605039196_1_0" index="0" disallow="tram rail_urban rail rail_electric ship" speed="22.22" length="8.97" shape="782.42,852.84 780.55,850.96 779.37,849.55 778.44,847.97 777.32,845.57"/>
    </edge>
    <edge id=":1605039196_2" function="internal">
        <lane id=":1605039196_2_0" index="0" disallow="tram rail_urban rail rail_electric ship" speed="13.89" length="5.14" shape="775.95,850.11 776.97,849.05 777.54,847.94 777.65,846.78 777.32,845.57"/>
    </edge>
    <edge id=":1605039196_3" function="internal">
        <lane id=":1605039196_3_0" index="0" allow="delivery bicycle pedestrian" speed="5.56" length="4.82" shape="775.95,850.11 777.43,849.96 778.27,850.33 778.48,851.23 778.06,852.65"/>
    </edge>
    <edge id=":1605039197_0" function="internal">
        <lane id=":1605039197_0_0" index="0" disallow="tram rail_urban rail rail_electric ship" speed="22.22" length="10.85" shape="833.07,834.31 831.88,837.47 831.24,840.27 831.16,842.72 831.63,844.83"/>
    </edge>
    <edge id=":1605039197_1" function="internal">
        <lane id=":1605039197_1_0" index="0" disallow="tram rail_urban rail rail_electric ship" speed="22.22" length="11.36" shape="833.07,834.31 831.80,837.24 830.72,839.50 829.40,841.61 827.41,844.08"/>
    </edge>
    <edge id=":1605039197_2" function="internal">
        <lane id=":1605039197_2_0" index="0" disallow="tram rail_urban rail rail_electric ship" speed="22.22" length="11.34" shape="829.95,833.70 830.01,836.89 830.16,839.39 830.62,841.83 831.63,844.83"/>
    </edge>
    <edge id=":1605039197_3" function="internal">
        <lane id=":1605039197_3_0" index="0" disallow="tram rail_urban rail rail_electric ship" speed="22.22" length="11.09" shape="829.95,833.70 830.07,836.90 829.96,839.36 829.21,841.58 827.41,844.08"/>
    </edge>
    <edge id=":1605039198_0" function="internal">
        <lane id=":1605039198_0_0" index="0" disallow="tram rail_urban rail rail_electric ship" speed="12.50" length="2.47" shape="831.69,832.36 830.92,832.33 830.37,832.51 830.05,832.90 829.95,833.50"/>
    </edge>
    <edge id=":1605039198_1" function="internal">
        <lane id=":1605039198_1_0" index="0" allow="bicycle pedestrian" speed="2.78" length="6.71" width="2.00" shape="831.69,832.36 829.75,831.98 828.48,831.52 827.25,830.88 825.48,829.97"/>
    </edge>
    <edge id=":1605039198_2" function="internal">
        <lane id=":1605039198_2_0" index="0" disallow="tram rail_urban rail rail_electric ship" speed="22.22" length="6.03" shape="828.21,827.73 829.95,833.50"/>
    </edge>
    <edge id=":1605039198_3" function="internal">
        <lane id=":1605039198_3_0" index="0" allow="bicycle pedestrian" speed="12.50" length="5.87" width="2.00" shape="828.21,827.73 828.68,829.51 828.38,830.47 827.31,830.62 825.48,829.97"/>
    </edge>
    <edge id=":1605039200_0" function="internal">
        <lane id=":1605039200_0_0" index="0" disallow="tram rail_urban rail rail_electric ship" speed="22.22" length="5.00" shape="823.67,819.06 828.40,820.68"/>
    </edge>
    <edge id=":1605039200_1" function="internal">
        <lane id=":1605039200_1_0" index="0" disallow="tram rail_urban rail rail_electric ship" speed="22.22" length="5.62" shape="823.67,819.06 824.87,819.90 825.20,820.99 825.35,822.32 826.03,823.85"/>
    </edge>
    <edge id=":1644392869_0" function="internal">
        <lane id=":1644392869_0_0" index="0" allow="delivery bicycle pedestrian" speed="5.56" length="9.50" shape="1575.39,1204.35 1566.85,1208.53"/>
    </edge>
    <edge id=":1644392869_1" function="internal">
        <lane id=":1644392869_1_0" index="0" allow="delivery bicycle pedestrian" speed="5.56" length="10.33" shape="1575.39,1204.35 1572.74,1205.20 1570.42,1204.99 1568.43,1203.72 1566.77,1201.40"/>
    </edge>
    <edge id=":1644392869_2" function="internal">
        <lane id=":1644392869_2_0" index="0" allow="delivery bicycle pedestrian" speed="5.56" length="4.82" shape="1575.39,1204.35 1573.91,1204.16 1573.18,1203.60 1573.19,1202.67 1573.94,1201.39"/>
    </edge>
    <edge id=":1644392869_3" function="internal">
        <lane id=":1644392869_3_0" index="0" allow="delivery bicycle pedestrian" speed="5.56" length="5.12" shape="1569.69,1199.86 1570.52,1201.04 1571.50,1201.68 1572.64,1201.80 1573.94,1201.39"/>
    </edge>
    <edge id=":1644392869_4" function="internal">
        <lane id=":1644392869_4_0" index="0" allow="delivery bicycle pedestrian" speed="5.56" length="10.46" shape="1569.69,1199.86 1570.65,1202.58 1570.50,1204.93 1569.23,1206.91 1566.85,1208.53"/>
    </edge>
    <edge id=":1644392869_5" function="internal">
        <lane id=":1644392869_5_0" index="0" allow="delivery bicycle pedestrian" speed="5.56" length="4.82" shape="1569.69,1199.86 1569.53,1201.34 1568.99,1202.09 1568.07,1202.11 1566.77,1201.40"/>
    </edge>
    <edge id=":1644392869_6" function="internal">
        <lane id=":1644392869_6_0" index="0" allow="delivery bicycle pedestrian" speed="5.56" length="5.03" shape="1565.40,1205.56 1566.55,1204.79 1567.16,1203.83 1567.23,1202.70 1566.77,1201.40"/>
    </edge>
    <edge id=":1644392869_7" function="internal">
        <lane id=":1644392869_7_0" index="0" allow="delivery bicycle pedestrian" speed="5.56" length="9.50" shape="1565.40,1205.56 1573.94,1201.39"/>
    </edge>
    <edge id=":1644392869_8" function="internal">
        <lane id=":1644392869_8_0" index="0" allow="delivery bicycle pedestrian" speed="5.56" length="4.82" shape="1565.40,1205.56 1566.88,1205.76 1567.61,1206.32 1567.60,1207.24 1566.85,1208.53"/>
    </edge>
    <edge id=":1645014813_0" function="internal">
        <lane id=":1645014813_0_0" index="0" disallow="tram rail_urban rail rail_electric ship" speed="9.72" length="7.54" shape="1405.71,989.15 1407.84,989.91 1409.40,990.45 1410.91,990.48 1412.88,989.70"/>
    </edge>
    <edge id=":1645014813_1" function="internal">
        <lane id=":1645014813_1_0" index="0" disallow="tram rail_urban rail rail_electric ship" speed="11.11" length="7.67" shape="1406.09,993.22 1412.88,989.70"/>
        <lane id=":1645014813_1_1" index="1" disallow="tram rail_urban rail rail_electric ship" speed="11.11" length="7.67" shape="1407.61,996.15 1414.44,992.60"/>
    </edge>
    <edge id=":1645014820_0" function="internal">
        <lane id=":1645014820_0_0" index="0" disallow="tram rail_urban rail rail_electric ship" speed="16.67" length="7.44" shape="1357.29,795.42 1354.95,795.90 1354.05,796.73 1354.60,797.92 1356.60,799.45"/>
    </edge>
    <edge id=":1645014820_1" function="internal">
        <lane id=":1645014820_1_0" index="0" disallow="tram rail_urban rail rail_electric ship" speed="16.67" length="17.65" shape="1357.29,795.42 1339.73,797.11"/>
    </edge>
    <edge id=":1645014820_2" function="internal">
        <lane id=":1645014820_2_0" index="0" disallow="tram rail_urban rail rail_electric ship" speed="22.22" length="2.41" shape="1357.29,795.42 1355.98,794.72 1355.49,793.94"/>
    </edge>
    <edge id=":1645014820_6" function="internal">
        <lane id=":1645014820_6_0" index="0" speed="22.22" length="2.41" shape="1355.49,793.94 1355.82,793.08 1356.97,792.13"/>
    </edge>
    <edge id=":1645014820_3" function="internal">
        <lane id=":1645014820_3_0" index="0" disallow="tram rail_urban rail rail_electric ship" speed="16.67" length="17.61" shape="1339.44,793.82 1356.97,792.13"/>
    </edge>
    <edge id=":1645014820_4" function="internal">
        <lane id=":1645014820_4_0" index="0" disallow="tram rail_urban rail rail_electric ship" speed="11.11" length="18.40" shape="1339.44,793.82 1342.94,794.32 1346.37,796.21 1350.30,799.08 1355.30,802.54"/>
    </edge>
    <edge id=":1645014820_5" function="internal">
        <lane id=":1645014820_5_0" index="0" disallow="tram rail_urban rail rail_electric ship" speed="11.11" length="2.41" shape="1339.44,793.82 1340.74,794.53 1341.23,795.32"/>
    </edge>
    <edge id=":1645014820_7" function="internal">
        <lane id=":1645014820_7_0" index="0" speed="11.11" length="2.41" shape="1341.23,795.32 1340.89,796.18 1339.73,797.11"/>
    </edge>
    <edge id=":1645014822_0" function="internal">
        <lane id=":1645014822_0_0" index="0" disallow="tram rail_urban rail rail_electric ship" speed="18.05" length="7.52" shape="1395.15,791.90 1393.07,792.56 1391.80,793.39 1390.73,794.56 1389.26,796.26"/>
    </edge>
    <edge id=":1645014822_1" function="internal">
        <lane id=":1645014822_1_0" index="0" disallow="tram rail_urban rail rail_electric ship" speed="22.22" length="7.56" shape="1395.15,791.90 1392.95,792.30 1391.42,792.35 1389.87,792.31 1387.63,792.43"/>
    </edge>
    <edge id=":1645014822_2" function="internal">
        <lane id=":1645014822_2_0" index="0" disallow="tram rail_urban rail rail_electric ship" speed="22.22" length="7.14" shape="1387.30,789.14 1394.43,788.68"/>
    </edge>
    <edge id=":1645014822_3" function="internal">
        <lane id=":1645014822_3_0" index="0" disallow="tram rail_urban rail rail_electric ship" speed="18.05" length="5.84" shape="1387.30,789.14 1390.92,789.24 1392.45,790.46 1392.39,790.72"/>
    </edge>
    <edge id=":1645014822_4" function="internal">
        <lane id=":1645014822_4_0" index="0" disallow="tram rail_urban rail rail_electric ship" speed="22.22" length="2.55" shape="1387.30,789.14 1388.62,789.84 1389.11,790.62 1389.06,790.75"/>
    </edge>
    <edge id=":1645014822_5" function="internal">
        <lane id=":1645014822_5_0" index="0" speed="18.05" length="6.48" shape="1392.39,790.72 1391.90,792.80 1389.26,796.26"/>
    </edge>
    <edge id=":1645014822_6" function="internal">
        <lane id=":1645014822_6_0" index="0" speed="22.22" length="2.27" shape="1389.06,790.75 1388.78,791.48 1387.63,792.43"/>
    </edge>
    <edge id=":1645014827_0" function="internal">
        <lane id=":1645014827_0_0" index="0" disallow="tram rail_urban rail rail_electric ship" speed="22.22" length="5.62" shape="1426.01,766.61 1426.78,765.14 1427.20,764.08 1427.46,762.96 1427.77,761.32"/>
    </edge>
    <edge id=":1645014846_0" function="internal">
        <lane id=":1645014846_0_0" index="0" allow="delivery bicycle pedestrian" speed="5.56" length="0.54" shape="1397.12,723.02 1396.59,722.91"/>
    </edge>
    <edge id=":1645014846_1" function="internal">
        <lane id=":1645014846_1_0" index="0" allow="delivery bicycle pedestrian" speed="5.56" length="0.93" shape="1397.51,719.74 1397.77,719.82 1397.94,719.90 1398.11,719.99 1398.36,720.11"/>
    </edge>
    <edge id=":1645014846_2" function="internal">
        <lane id=":1645014846_2_0" index="0" allow="delivery bicycle pedestrian" speed="5.56" length="2.41" shape="1397.51,719.74 1398.47,720.87 1398.63,721.78"/>
    </edge>
    <edge id=":1645014846_3" function="internal">
        <lane id=":1645014846_3_0" index="0" speed="5.56" length="2.41" shape="1398.63,721.78 1398.01,722.46 1396.59,722.91"/>
    </edge>
    <edge id=":1645032390_0" function="internal">
        <lane id=":1645032390_0_0" index="0" allow="delivery bicycle pedestrian" speed="5.56" length="8.54" shape="1562.98,772.28 1562.25,769.86 1561.67,768.22 1560.93,766.65 1559.78,764.39"/>
    </edge>
    <edge id=":1645032390_1" function="internal">
        <lane id=":1645032390_1_0" index="0" allow="delivery bicycle pedestrian" speed="5.56" length="9.83" shape="1562.98,772.28 1562.65,769.81 1563.20,767.64 1564.61,765.78 1566.89,764.22"/>
    </edge>
    <edge id=":1645032390_2" function="internal">
        <lane id=":1645032390_2_0" index="0" allow="delivery bicycle pedestrian" speed="5.56" length="4.82" shape="1562.98,772.28 1563.46,770.87 1564.14,770.26 1565.05,770.44 1566.17,771.42"/>
    </edge>
    <edge id=":1645032390_3" function="internal">
        <lane id=":1645032390_3_0" index="0" allow="delivery bicycle pedestrian" speed="5.56" length="5.28" shape="1568.40,767.15 1567.13,768.00 1566.33,769.00 1566.01,770.14 1566.17,771.42"/>
    </edge>
    <edge id=":1645032390_4" function="internal">
        <lane id=":1645032390_4_0" index="0" allow="delivery bicycle pedestrian" speed="5.56" length="10.33" shape="1568.40,767.15 1565.73,768.08 1563.40,767.93 1561.42,766.70 1559.78,764.39"/>
    </edge>
    <edge id=":1645032390_5" function="internal">
        <lane id=":1645032390_5_0" index="0" allow="delivery bicycle pedestrian" speed="5.56" length="4.82" shape="1568.40,767.15 1566.93,766.99 1566.18,766.44 1566.17,765.52 1566.89,764.22"/>
    </edge>
    <edge id=":1645032390_6" function="internal">
        <lane id=":1645032390_6_0" index="0" allow="delivery bicycle pedestrian" speed="5.56" length="5.00" shape="1562.71,762.88 1563.51,764.00 1564.47,764.60 1565.59,764.67 1566.89,764.22"/>
    </edge>
    <edge id=":1645032390_7" function="internal">
        <lane id=":1645032390_7_0" index="0" allow="delivery bicycle pedestrian" speed="5.56" length="9.23" shape="1562.71,762.88 1563.96,765.32 1564.75,767.03 1565.38,768.79 1566.17,771.42"/>
    </edge>
    <edge id=":1645032390_8" function="internal">
        <lane id=":1645032390_8_0" index="0" allow="delivery bicycle pedestrian" speed="5.56" length="4.82" shape="1562.71,762.88 1562.55,764.36 1562.00,765.11 1561.08,765.12 1559.78,764.39"/>
    </edge>
    <edge id=":1645032395_0" function="internal">
        <lane id=":1645032395_0_0" index="0" allow="delivery bicycle pedestrian" speed="5.56" length="4.82" shape="1907.69,691.20 1907.53,692.68 1906.99,693.43 1906.07,693.44 1904.77,692.72"/>
    </edge>
    <edge id=":1645032396_0" function="internal">
        <lane id=":1645032396_0_0" index="0" allow="delivery bicycle pedestrian" speed="5.56" length="9.50" shape="1785.49,658.67 1776.97,662.89"/>
    </edge>
    <edge id=":1645032396_1" function="internal">
        <lane id=":1645032396_1_0" index="0" allow="delivery bicycle pedestrian" speed="5.56" length="10.33" shape="1785.49,658.67 1782.87,659.52 1780.55,659.31 1778.53,658.05 1776.82,655.75"/>
    </edge>
    <edge id=":1645032396_2" function="internal">
        <lane id=":1645032396_2_0" index="0" allow="delivery bicycle pedestrian" speed="5.56" length="4.82" shape="1785.49,658.67 1784.01,658.48 1783.28,657.92 1783.28,657.00 1784.03,655.71"/>
    </edge>
    <edge id=":1645032396_3" function="internal">
        <lane id=":1645032396_3_0" index="0" allow="delivery bicycle pedestrian" speed="5.56" length="5.18" shape="1779.71,654.16 1780.58,655.34 1781.59,655.99 1782.74,656.12 1784.03,655.71"/>
    </edge>
    <edge id=":1645032396_4" function="internal">
        <lane id=":1645032396_4_0" index="0" allow="delivery bicycle pedestrian" speed="5.56" length="10.54" shape="1779.71,654.16 1780.74,656.87 1780.62,659.23 1779.37,661.24 1776.97,662.89"/>
    </edge>
    <edge id=":1645032396_5" function="internal">
        <lane id=":1645032396_5_0" index="0" allow="delivery bicycle pedestrian" speed="5.56" length="4.82" shape="1779.71,654.16 1779.59,655.64 1779.06,656.40 1778.14,656.43 1776.82,655.75"/>
    </edge>
    <edge id=":1645032396_6" function="internal">
        <lane id=":1645032396_6_0" index="0" allow="delivery bicycle pedestrian" speed="5.56" length="5.05" shape="1775.51,659.93 1776.66,659.14 1777.26,658.18 1777.31,657.05 1776.82,655.75"/>
    </edge>
    <edge id=":1645032396_7" function="internal">
        <lane id=":1645032396_7_0" index="0" allow="delivery bicycle pedestrian" speed="5.56" length="9.50" shape="1775.51,659.93 1784.03,655.71"/>
    </edge>
    <edge id=":1645032396_8" function="internal">
        <lane id=":1645032396_8_0" index="0" allow="delivery bicycle pedestrian" speed="5.56" length="4.82" shape="1775.51,659.93 1776.98,660.12 1777.72,660.68 1777.72,661.60 1776.97,662.89"/>
    </edge>
    <edge id=":1645032397_0" function="internal">
        <lane id=":1645032397_0_0" index="0" allow="delivery bicycle pedestrian" speed="5.56" length="2.51" shape="1770.91,644.99 1770.49,644.44 1770.00,644.15 1769.43,644.11 1768.78,644.33"/>
    </edge>
    <edge id=":1645032397_1" function="internal">
        <lane id=":1645032397_1_0" index="0" allow="delivery bicycle pedestrian" speed="5.56" length="2.19" shape="1770.91,644.99 1771.03,643.51 1771.43,642.93"/>
    </edge>
    <edge id=":1645032397_4" function="internal">
        <lane id=":1645032397_4_0" index="0" speed="5.56" length="2.63" shape="1771.43,642.93 1771.56,642.75 1772.48,642.71 1773.80,643.40"/>
    </edge>
    <edge id=":1645032397_2" function="internal">
        <lane id=":1645032397_2_0" index="0" allow="delivery bicycle pedestrian" speed="5.56" length="7.69" shape="1767.30,641.38 1769.29,640.71 1771.04,640.83 1772.54,641.72 1773.80,643.40"/>
    </edge>
    <edge id=":1645032397_3" function="internal">
        <lane id=":1645032397_3_0" index="0" allow="delivery bicycle pedestrian" speed="5.56" length="2.81" shape="1767.30,641.38 1768.78,641.56 1769.52,642.12 1769.52,642.52"/>
    </edge>
    <edge id=":1645032397_5" function="internal">
        <lane id=":1645032397_5_0" index="0" speed="5.56" length="2.01" shape="1769.52,642.52 1769.52,643.04 1768.78,644.33"/>
    </edge>
    <edge id=":1653864661_0" function="internal">
        <lane id=":1653864661_0_0" index="0" allow="delivery bicycle pedestrian" speed="5.56" length="4.82" shape="2087.09,808.82 2088.57,808.98 2089.31,809.52 2089.33,810.44 2088.61,811.75"/>
    </edge>
    <edge id=":1654415893_0" function="internal">
        <lane id=":1654415893_0_0" index="0" disallow="tram rail_urban rail rail_electric ship" speed="9.72" length="5.01" shape="1904.05,906.68 1902.92,907.47 1902.33,908.43 1902.26,909.56 1902.72,910.85"/>
    </edge>
    <edge id=":1654415893_1" function="internal">
        <lane id=":1654415893_1_0" index="0" allow="delivery bicycle pedestrian" speed="5.56" length="4.82" shape="1904.05,906.68 1902.57,906.50 1901.83,905.96 1901.82,905.04 1902.55,903.74"/>
    </edge>
    <edge id=":1654415893_2" function="internal">
        <lane id=":1654415893_2_0" index="0" allow="delivery bicycle pedestrian" speed="9.72" length="4.85" shape="1898.42,902.65 1899.17,903.66 1900.11,904.18 1901.24,904.21 1902.55,903.74"/>
    </edge>
    <edge id=":1654415893_3" function="internal">
        <lane id=":1654415893_3_0" index="0" disallow="tram rail_urban rail rail_electric ship" speed="13.89" length="9.26" shape="1898.42,902.65 1902.72,910.85"/>
    </edge>
    <edge id=":1654422613_0" function="internal">
        <lane id=":1654422613_0_0" index="0" allow="delivery bicycle pedestrian" speed="5.56" length="0.16" shape="1894.02,804.12 1893.88,804.19"/>
    </edge>
    <edge id=":1654422613_1" function="internal">
        <lane id=":1654422613_1_0" index="0" allow="delivery bicycle pedestrian" speed="5.56" length="2.41" shape="1894.02,804.12 1892.55,803.94 1891.80,803.39"/>
    </edge>
    <edge id=":1654422613_4" function="internal">
        <lane id=":1654422613_4_0" index="0" speed="5.56" length="2.41" shape="1891.80,803.39 1891.80,802.47 1892.52,801.17"/>
    </edge>
    <edge id=":1654422613_2" function="internal">
        <lane id=":1654422613_2_0" index="0" allow="delivery bicycle pedestrian" speed="5.56" length="0.29" shape="1892.27,801.31 1892.52,801.17"/>
    </edge>
    <edge id=":1654422613_3" function="internal">
        <lane id=":1654422613_3_0" index="0" allow="delivery bicycle pedestrian" speed="5.56" length="2.41" shape="1892.27,801.31 1893.75,801.43 1894.52,801.94"/>
    </edge>
    <edge id=":1654422613_5" function="internal">
        <lane id=":1654422613_5_0" index="0" speed="5.56" length="2.41" shape="1894.52,801.94 1894.56,802.87 1893.88,804.19"/>
    </edge>
    <edge id=":1654422614_0" function="internal">
        <lane id=":1654422614_0_0" index="0" allow="delivery bicycle pedestrian" speed="5.56" length="4.82" shape="2032.47,752.02 2032.72,753.48 2032.40,754.35 2031.51,754.61 2030.07,754.27"/>
    </edge>
    <edge id=":1654422617_0" function="internal">
        <lane id=":1654422617_0_0" index="0" allow="delivery bicycle pedestrian" speed="5.56" length="4.82" shape="1967.46,803.63 1967.35,805.11 1966.84,805.87 1965.91,805.92 1964.59,805.25"/>
    </edge>
    <edge id=":1654422618_0" function="internal">
        <lane id=":1654422618_0_0" index="0" allow="delivery bicycle pedestrian" speed="5.56" length="0.81" shape="2015.23,742.70 2014.99,742.70 2014.82,742.72 2014.66,742.77 2014.45,742.88"/>
    </edge>
    <edge id=":1654422618_1" function="internal">
        <lane id=":1654422618_1_0" index="0" allow="delivery bicycle pedestrian" speed="5.56" length="2.07" shape="2015.23,742.70 2014.02,741.84 2013.78,741.31"/>
    </edge>
    <edge id=":1654422618_4" function="internal">
        <lane id=":1654422618_4_0" index="0" speed="5.56" length="2.75" shape="2013.78,741.31 2013.64,741.00 2014.08,740.19 2015.34,739.41"/>
    </edge>
    <edge id=":1654422618_2" function="internal">
        <lane id=":1654422618_2_0" index="0" allow="delivery bicycle pedestrian" speed="5.56" length="2.50" shape="2012.95,739.93 2013.61,739.61 2014.10,739.45 2014.61,739.39 2015.34,739.41"/>
    </edge>
    <edge id=":1654422618_3" function="internal">
        <lane id=":1654422618_3_0" index="0" allow="delivery bicycle pedestrian" speed="5.56" length="2.85" shape="2012.95,739.93 2014.43,740.11 2015.17,740.66 2015.17,741.10"/>
    </edge>
    <edge id=":1654422618_5" function="internal">
        <lane id=":1654422618_5_0" index="0" speed="5.56" length="1.96" shape="2015.17,741.10 2015.18,741.58 2014.45,742.88"/>
    </edge>
    <edge id=":1654422619_0" function="internal">
        <lane id=":1654422619_0_0" index="0" allow="delivery bicycle pedestrian" speed="5.56" length="4.82" shape="1947.37,814.03 1947.22,815.51 1946.68,816.26 1945.76,816.28 1944.45,815.58"/>
    </edge>
    <edge id=":1654422621_0" function="internal">
        <lane id=":1654422621_0_0" index="0" allow="delivery bicycle pedestrian" speed="5.56" length="5.18" shape="1949.96,779.33 1949.08,778.15 1948.06,777.50 1946.91,777.39 1945.63,777.82"/>
    </edge>
    <edge id=":1654422621_1" function="internal">
        <lane id=":1654422621_1_0" index="0" allow="delivery bicycle pedestrian" speed="5.56" length="10.55" shape="1949.96,779.33 1948.90,776.62 1948.99,774.25 1950.23,772.23 1952.61,770.56"/>
    </edge>
    <edge id=":1654422621_2" function="internal">
        <lane id=":1654422621_2_0" index="0" allow="delivery bicycle pedestrian" speed="5.56" length="4.82" shape="1949.96,779.33 1950.07,777.84 1950.58,777.08 1951.50,777.03 1952.83,777.70"/>
    </edge>
    <edge id=":1654422621_3" function="internal">
        <lane id=":1654422621_3_0" index="0" allow="delivery bicycle pedestrian" speed="5.56" length="5.05" shape="1954.10,773.51 1952.96,774.31 1952.37,775.27 1952.33,776.41 1952.83,777.70"/>
    </edge>
    <edge id=":1654422621_4" function="internal">
        <lane id=":1654422621_4_0" index="0" allow="delivery bicycle pedestrian" speed="5.56" length="9.51" shape="1954.10,773.51 1945.63,777.82"/>
    </edge>
    <edge id=":1654422621_5" function="internal">
        <lane id=":1654422621_5_0" index="0" allow="delivery bicycle pedestrian" speed="5.56" length="4.82" shape="1954.10,773.51 1952.62,773.33 1951.88,772.78 1951.88,771.86 1952.61,770.56"/>
    </edge>
    <edge id=":1654422621_6" function="internal">
        <lane id=":1654422621_6_0" index="0" allow="delivery bicycle pedestrian" speed="5.56" length="9.51" shape="1944.13,774.88 1952.61,770.56"/>
    </edge>
    <edge id=":1654422621_7" function="internal">
        <lane id=":1654422621_7_0" index="0" allow="delivery bicycle pedestrian" speed="5.56" length="10.34" shape="1944.13,774.88 1946.74,774.00 1949.06,774.18 1951.09,775.41 1952.83,777.70"/>
    </edge>
    <edge id=":1654422621_8" function="internal">
        <lane id=":1654422621_8_0" index="0" allow="delivery bicycle pedestrian" speed="5.56" length="4.82" shape="1944.13,774.88 1945.60,775.05 1946.35,775.60 1946.35,776.52 1945.63,777.82"/>
    </edge>
    <edge id=":1654422627_0" function="internal">
        <lane id=":1654422627_0_0" index="0" allow="delivery bicycle pedestrian" speed="5.56" length="0.17" shape="2021.99,745.66 2021.87,745.54"/>
    </edge>
    <edge id=":1654422627_1" function="internal">
        <lane id=":1654422627_1_0" index="0" allow="delivery bicycle pedestrian" speed="5.56" length="2.41" shape="2021.99,745.66 2021.74,744.19 2022.06,743.33"/>
    </edge>